[TITLE]
;;Project Title/Notes

[OPTIONS]
;;Option             Value
FLOW_UNITS           LPS
INFILTRATION         HORTON
FLOW_ROUTING DYNWAVE
LINK_OFFSETS         DEPTH
MIN_SLOPE            0
ALLOW_PONDING        NO
SKIP_STEADY_STATE    NO

START_DATE           01/01/2000
START_TIME           00:00:00
REPORT_START_DATE    01/01/2000
REPORT_START_TIME    00:00:00
END_DATE             01/01/2000
END_TIME             23:59:00
SWEEP_START          1/1
SWEEP_END            12/31
DRY_DAYS             0
REPORT_STEP          00:15:00
WET_STEP             00:05:00
DRY_STEP             01:00:00
ROUTING_STEP         0:00:05 
RULE_STEP            00:00:00

INERTIAL_DAMPING     PARTIAL
NORMAL_FLOW_LIMITED  BOTH
FORCE_MAIN_EQUATION  H-W
VARIABLE_STEP        0.75
LENGTHENING_STEP     0
MIN_SURFAREA         0
MAX_TRIALS           0
HEAD_TOLERANCE       0
SYS_FLOW_TOL         5
LAT_FLOW_TOL         5
MINIMUM_STEP         0.5
THREADS              1

[EVAPORATION]
;;Data Source    Parameters
;;-------------- ----------------
CONSTANT         0.0
DRY_ONLY         NO

[RAINGAGES]
;;Name           Format    Interval SCF      Source    
;;-------------- --------- ------ ------ ----------
1                INTENSITY 00:05    1        FILE       C:\Users\bdobson\Documents\GitHub\SWMManywhere\src\swmmanywhere\defs\storm.dat 1          mm   

[SUBCATCHMENTS]
;;Name           Rain Gage        Outlet           Area     %Imperv  Width    %Slope   CurbLen  SnowPack        
;;-------------- ---------------- ---------------- -------- -------- -------- -------- -------- ----------------
755-sub          1                755              0.24088469598335727 20.91049412296149 27.690427978252607 0.22867964208126068 0        empty           
1584-sub         1                1584             0.5419905659625182 13.001175825864609 41.535641967377536 0.18533706665039062 0        empty           
1582-sub         1                1582             0.12044234799160722 15.179026674532292 19.580089397374316 0.0666399821639061 0        empty           
494-sub          1                494              0.12044234799175006 67.20356007905185 19.580089397385926 0.07749605178833008 0        empty           
799-sub          1                799              0.06022117399580361 82.64264018016941 13.845213989122199 0.0      0        empty           
1587-sub         1                1587             0.060221173995946446 27.586630553783714 13.84521398913862 0.284975528717041 0        empty           
493-sub          1                493              0.060221173995946446 98.31843719059708 13.84521398913862 0.10972217470407486 0        empty           
509-sub          1                509              0.06022117399580361 68.01331410134873 13.845213989122199 0.2103899121284485 0        empty           
1284-sub         1                1284             0.06022117399580361 54.01007180865752 13.845213989122199 0.21670787036418915 0        empty           
1278-sub         1                1278             0.060221173995946446 83.864013768501 13.84521398913862 0.20628009736537933 0        empty           
1276-sub         1                1276             0.06022117399580361 45.74946341796464 13.845213989122199 0.17527148127555847 0        empty           
1589-sub         1                1589             0.12044234798946458 15.031867379380223 19.58008939720015 0.32589441537857056 0        empty           
486-sub          1                486              0.12044234798932175 34.14378365311247 19.580089397188544 0.11377965658903122 0        empty           
488-sub          1                488              0.12044234798932175 54.54961726265554 19.580089397188544 0.121074378490448 0        empty           
1372-sub         1                1372             0.12044234798932175 90.52319941967339 19.580089397188544 0.10251511633396149 0        empty           
819-sub          1                819              0.18066352198298272 82.78496344522574 23.980614070529136 0.2693093717098236 0        empty           
1273-sub         1                1273             0.12044234798960743 60.481066312016296 19.580089397211765 0.30096399784088135 0        empty           
1262-sub         1                1262             0.18066352198512536 67.26844624827076 23.980614070671336 0.2823171317577362 0        empty           
757-sub          1                757              0.06022117399351814 88.14619759155839 13.845213988859477 0.21088263392448425 0        empty           
512-sub          1                512              0.06022117399351814 55.09738235217482 13.845213988859477 0.22619804739952087 0        empty           
1590-sub         1                1590             0.7226540879410728 13.073653344590127 47.96122814136164 0.3754790723323822 0        empty           
485-sub          1                485              0.3011058699744471 54.692899802164874 30.958839642473286 0.12178516387939453 0        empty           
1375-sub         1                1375             0.30110586997444716 68.38473245808204 30.958839642473286 0.1864200383424759 0        empty           
764-sub          1                764              0.12044234798932175 31.535015025719897 19.580089397188544 0.33326566219329834 0        empty           
514-sub          1                514              0.12044234798960743 84.56226237450316 19.580089397211765 0.23140493035316467 0        empty           
817-sub          1                817              0.18066352198512536 66.24405926091661 23.980614070671336 0.2527982294559479 0        empty           
484-sub          1                484              0.06022117399580361 39.21970901013728 13.845213989122199 0.11183015257120132 0        empty           
513-sub          1                513              0.06022117399580361 59.65296924072998 13.845213989122199 0.2437547892332077 0        empty           
1373-sub         1                1373             0.06022117399580361 63.509854465682125 13.845213989122199 0.128256693482399 0        empty           
818-sub          1                818              0.060221173995946446 29.11449643205571 13.84521398913862 0.1885366141796112 0        empty           
368-sub          1                368              1.1442023059094124 42.765291247058855 60.34988862999301 0.21551859378814697 0        empty           
768-sub          1                768              0.240884695979072 18.159276606562997 27.690427978006305 0.42250972986221313 0        empty           
766-sub          1                766              0.12044234799160722 49.15859460817467 19.580089397374316 0.3845493793487549 0        empty           
516-sub          1                516              0.18066352198741084 88.14131922437734 23.980614070823023 0.2038453370332718 0        empty           
1675-sub         1                1675             0.12044234799160722 29.859898042724797 19.580089397374316 0.13989363610744476 0        empty           
478-sub          1                478              0.060221173995946446 52.032883266737365 13.84521398913862 0.17122793197631836 0        empty           
1674-sub         1                1674             0.18066352198741084 34.445312755004494 23.980614070823023 0.0824941098690033 0        empty           
830-sub          1                830              0.12044234799175006 73.77451854597356 19.580089397385926 0.1519639492034912 0        empty           
477-sub          1                477              2.589510481814413 6.626295364741283 90.78913958938475 0.2654126286506653 0        empty           
774-sub          1                774              0.3613270439705364 14.459345587862964 33.91370965279189 0.5197960138320923 0        empty           
772-sub          1                772              0.3011058699744471 11.483145732943955 30.958839642473286 0.49861469864845276 0        empty           
771-sub          1                771              0.240884695980929 21.773927435290716 27.690427978113036 0.5341153144836426 0        empty           
769-sub          1                769              0.18066352198741084 20.708479192855993 23.980614070823023 0.5267081260681152 0        empty           
517-sub          1                517              0.3613270439748217 63.78485790356409 33.91370965299299 0.20697951316833496 0        empty           
1678-sub         1                1678             0.060221173995946446 35.5243513914178 13.84521398913862 0.10901045054197311 0        empty           
778-sub          1                778              0.8430964359305373 7.546172339373068 51.804047193535844 0.5685867667198181 0        empty           
777-sub          1                777              0.30110586997444705 27.847516940205985 30.958839642473283 0.5532287359237671 0        empty           
775-sub          1                775              0.18066352198555388 27.61192558094656 23.98061407069978 0.6158660054206848 0        empty           
988-sub          1                988              0.4215482179686254 55.67330566779616 36.63099306360298 0.1430751532316208 0        empty           
1378-sub         1                1378             0.18066352198512536 74.74500106611522 23.980614070671336 0.1494908481836319 0        empty           
518-sub          1                518              0.06022117399351814 52.750998606287325 13.845213988859477 0.1368686556816101 0        empty           
1377-sub         1                1377             0.060221173993660976 57.139014464839434 13.845213988875896 0.17423216998577118 0        empty           
363-sub          1                363              0.18066352198512536 35.58699565812643 23.980614070671336 0.13929441571235657 0        empty           
362-sub          1                362              0.6624329139476975 51.90796572976131 45.919379943885176 0.16088899970054626 0        empty           
374-sub          1                374              0.18066352198512536 56.61004560827868 23.980614070671336 0.15206143260002136 0        empty           
666-sub          1                666              0.18066352198298272 2.8126700257362947 23.980614070529136 0.2990945875644684 0        empty           
678-sub          1                678              0.12044234798946458 47.94481391773163 19.58008939720015 0.4505857825279236 0        empty           
674-sub          1                674              0.1806635219828399 32.51160938736874 23.980614070519657 0.3516249656677246 0        empty           
1687-sub         1                1687             0.1806635219828399 85.23946708380925 23.980614070519657 0.14432156085968018 0        empty           
780-sub          1                780              0.06022117399580361 40.303970461673885 13.845213989122199 0.16252093017101288 0        empty           
779-sub          1                779              0.060221173995946446 37.20432287760929 13.84521398913862 0.2738320827484131 0        empty           
987-sub          1                987              0.060221173995946446 47.54093140939546 13.84521398913862 0.06641403585672379 0        empty           
1379-sub         1                1379             0.06022117399580361 49.17431009450276 13.845213989122199 0.18238092958927155 0        empty           
361-sub          1                361              0.6624329139496973 68.5767502307251 45.91937994395449 0.16346071660518646 0        empty           
616-sub          1                616              0.6022117399446087 38.17144527182823 43.78241089756376 0.2139420062303543 0        empty           
679-sub          1                679              0.30110586997473276 32.465794533044885 30.95883964248797 0.4575507640838623 0        empty           
532-sub          1                532              0.3011058699744471 68.19699055944986 30.958839642473286 0.10762882232666016 0        empty           
636-sub          1                636              0.1806635219876965 37.793279542929255 23.98061407084198 0.32322996854782104 0        empty           
1391-sub         1                1391             0.12044234799189289 68.70166945222948 19.580089397397536 0.18354706466197968 0        empty           
792-sub          1                792              0.24088469598350012 41.587672191633935 27.690427978260818 0.11785870790481567 0        empty           
667-sub          1                667              0.06022117399580361 27.036817224577547 13.845213989122199 0.47357937693595886 0        empty           
680-sub          1                680              0.06022117399580361 51.90235966691762 13.845213989122199 0.5514411926269531 0        empty           
794-sub          1                794              0.12044234799175006 75.22456370991651 19.580089397385926 0.10022766888141632 0        empty           
984-sub          1                984              0.9033176099306259 45.81246941522523 53.62228320435744 0.2102915644645691 0        empty           
355-sub          1                355              1.5657505238801808 25.7956014983295 70.59701630016038 0.19293127954006195 0        empty           
635-sub          1                635              0.30110586997687544 27.379063955946105 30.958839642598118 0.31224578619003296 0        empty           
791-sub          1                791              0.3613270439703935 48.34771069351501 33.91370965278518 0.15030555427074432 0        empty           
681-sub          1                681              0.30110586997673255 29.95280023928301 30.958839642590775 0.47951287031173706 0        empty           
673-sub          1                673              0.18066352198741084 23.190015949085716 23.980614070823023 0.3179313838481903 0        empty           
671-sub          1                671              0.18066352198741084 40.91960969388358 23.980614070823023 0.34306463599205017 0        empty           
670-sub          1                670              0.24088469598364295 7.741807129015034 27.690427978269025 0.33553773164749146 0        empty           
669-sub          1                669              0.12044234799160722 14.70325565718302 19.580089397374316 0.46452122926712036 0        empty           
790-sub          1                790              0.18066352198741084 39.2220497322679 23.980614070823023 0.1055842712521553 0        empty           
359-sub          1                359              0.12044234799175006 80.48449156785057 19.580089397385926 0.11979806423187256 0        empty           
1357-sub         1                1357             0.12044234799175006 34.11723045050038 19.580089397385926 0.10008876025676727 0        empty           
788-sub          1                788              0.06022117399580361 70.28773869820441 13.845213989122199 0.12393565475940704 0        empty           
795-sub          1                795              0.12044234799160722 57.33873211314198 19.580089397374316 0.10389199107885361 0        empty           
683-sub          1                683              0.602211739951751 14.645781658612819 43.78241089782339 0.37169069051742554 0        empty           
1229-sub         1                1229             2.0475199158356103 19.163162408884045 80.7307767439827 0.043721966445446014 0        empty           
661-sub          1                661              0.3613270439728219 47.92166440924942 33.91370965289914 0.35051068663597107 0        empty           
664-sub          1                664              0.3011058699767326 56.50500547581383 30.958839642590778 0.31514206528663635 0        empty           
1405-sub         1                1405             0.3011058699767326 53.66020077481569 30.958839642590778 0.19221967458724976 0        empty           
531-sub          1                531              0.24088469598107182 64.98338624872714 27.690427978121246 0.06336189806461334 0        empty           
634-sub          1                634              0.12044234798960743 31.717134212165927 19.580089397211765 0.31379058957099915 0        empty           
682-sub          1                682              0.12044234798932175 54.35509985702688 19.580089397188544 0.4724384844303131 0        empty           
1086-sub         1                1086             0.12044234798932175 59.62015596075945 19.580089397188544 0.09890259057283401 0        empty           
662-sub          1                662              0.06022117399351814 83.04905398521686 13.845213988859477 0.2622154951095581 0        empty           
440-sub          1                440              0.06022117399351814 67.01264982073714 13.845213988859477 0.05762890726327896 0        empty           
633-sub          1                633              0.12044234798932175 67.24209668870229 19.580089397188544 0.1726544201374054 0        empty           
694-sub          1                694              0.12044234798932175 42.467943164454816 19.580089397188544 0.2878960967063904 0        empty           
692-sub          1                692              0.12044234798932175 47.8867889003913 19.580089397188544 0.3328404426574707 0        empty           
688-sub          1                688              0.18066352198312557 40.13053413368989 23.980614070538614 0.352230429649353 0        empty           
660-sub          1                660              0.12044234799175006 21.127531750113338 19.580089397385926 0.18463130295276642 0        empty           
707-sub          1                707              0.12044234799175006 73.66905397916963 19.580089397385926 0.21171599626541138 0        empty           
695-sub          1                695              0.06022117399580361 96.80861673610104 13.845213989122199 0.18009033799171448 0        empty           
684-sub          1                684              0.06022117399580361 42.62403974859234 13.845213989122199 0.30263751745224 0        empty           
1406-sub         1                1406             0.06022117399580361 93.09458817335249 13.845213989122199 0.1138991266489029 0        empty           
983-sub          1                983              0.06022117399580361 91.80610562721351 13.845213989122199 0.09474874287843704 0        empty           
1131-sub         1                1131             0.12044234799160722 86.95135499468256 19.580089397374316 0.11217787861824036 0        empty           
1063-sub         1                1063             0.06022117399580361 53.979037714096954 13.845213989122199 0.0644310787320137 0        empty           
1054-sub         1                1054             0.060221173995946446 60.759299772984846 13.84521398913862 0.09392362833023071 0        empty           
659-sub          1                659              0.42154821796848263 37.18372938867478 36.630993063596776 0.28123739361763 0        empty           
699-sub          1                699              0.24088469597878634 52.15997387290743 27.690427977989884 0.2490675449371338 0        empty           
1193-sub         1                1193             0.3011058699771611 22.07549791840964 30.958839642612805 0.07280430197715759 0        empty           
1408-sub         1                1408             0.18066352198755367 65.66865587774036 23.9806140708325 0.24488615989685059 0        empty           
1407-sub         1                1407             0.12044234799160722 88.61253880683277 19.580089397374316 0.1940036118030548 0        empty           
980-sub          1                980              0.12044234799189289 68.81507721911007 19.580089397397536 0.16657403111457825 0        empty           
1194-sub         1                1194             0.18066352198741084 19.049076568260954 23.980614070823023 0.045556917786598206 0        empty           
1200-sub         1                1200             0.18066352198741084 26.28015692861096 23.980614070823023 0.04604344442486763 0        empty           
1064-sub         1                1064             0.12044234799175006 98.14420955041815 19.580089397385926 0.06217070668935776 0        empty           
423-sub          1                423              0.06022117399580361 87.86911356993923 13.845213989122199 0.18365682661533356 0        empty           
972-sub          1                972              0.481769391961858 54.31046662185015 39.16017879456285 0.3436886966228485 0        empty           
1192-sub         1                1192             0.4215482179686254 45.7446017479273 36.63099306360298 0.06117856130003929 0        empty           
1411-sub         1                1411             0.24088469598321444 61.021279536037696 27.690427978244397 0.3738107681274414 0        empty           
1197-sub         1                1197             0.24088469598321444 28.594983940624218 27.690427978244397 0.04904673993587494 0        empty           
1198-sub         1                1198             0.18066352198741084 20.585449556262862 23.980614070823023 0.04364505410194397 0        empty           
1199-sub         1                1199             0.18066352198783933 21.2668853153356 23.980614070851463 0.036766842007637024 0        empty           
1130-sub         1                1130             0.24088469598350012 92.97323876846255 27.690427978260818 0.07320693135261536 0        empty           
656-sub          1                656              0.12044234799160722 34.92163456868474 19.580089397374316 0.15123093128204346 0        empty           
1409-sub         1                1409             0.12044234799189289 91.14675023929264 19.580089397397536 0.34003496170043945 0        empty           
450-sub          1                450              0.12044234799160722 52.628538119320744 19.580089397374316 0.18257349729537964 0        empty           
275-sub          1                275              0.24088469598321444 95.37947925863091 27.690427978244397 0.09978239238262177 0        empty           
975-sub          1                975              0.060221173995946446 46.93739133904267 13.84521398913862 0.12744493782520294 0        empty           
452-sub          1                452              0.06022117399580361 47.85593292288151 13.845213989122199 0.10636007785797119 0        empty           
453-sub          1                453              0.06022117399580361 40.43926583667267 13.845213989122199 0.09026101976633072 0        empty           
1191-sub         1                1191             0.12044234799160722 39.7814891852329 19.580089397374316 0.07221575081348419 0        empty           
1055-sub         1                1055             0.12044234799175006 92.09403622023741 19.580089397385926 0.11992291361093521 0        empty           
1348-sub         1                1348             0.8430964359302517 70.6399032105919 51.80404719352707 0.0733221247792244 0        empty           
1414-sub         1                1414             0.24088469598121465 65.6095772793011 27.690427978129456 0.31498098373413086 0        empty           
1347-sub         1                1347             0.18066352198512536 40.13646387335189 23.980614070671336 0.08355199545621872 0        empty           
418-sub          1                418              0.12044234798932175 38.3313892243464 19.580089397188544 0.13691604137420654 0        empty           
432-sub          1                432              0.06022117399351814 63.92961815098182 13.845213988859477 0.03221553936600685 0        empty           
1190-sub         1                1190             0.18066352198069727 22.77399132990459 23.980614070377456 0.038915250450372696 0        empty           
274-sub          1                274              0.06022117399351814 67.16790837889157 13.845213988859477 0.1681700497865677 0        empty           
1001-sub         1                1001             0.06022117399351814 82.97461330040821 13.845213988859477 0.10187447816133499 0        empty           
698-sub          1                698              0.42154821796634007 52.20444923394343 36.63099306350368 0.31286922097206116 0        empty           
1415-sub         1                1415             0.30110586997473276 71.87992342984974 30.95883964248797 0.21849390864372253 0        empty           
1416-sub         1                1416             0.30110586997444716 52.331693527382015 30.958839642473286 0.246360182762146 0        empty           
415-sub          1                415              0.12044234798960743 57.53416574470127 19.580089397211765 0.09880025684833527 0        empty           
1060-sub         1                1060             0.24088469597878634 68.43652326226483 27.690427977989884 0.1183481514453888 0        empty           
416-sub          1                416              0.12044234799160722 53.28101844826738 19.580089397374316 0.05121605098247528 0        empty           
1213-sub         1                1213             0.060221173995946446 81.4689541218853 13.84521398913862 0.016107769683003426 0        empty           
1186-sub         1                1186             0.06022117399580361 57.1833873104057 13.845213989122199 0.07094736397266388 0        empty           
1188-sub         1                1188             0.06022117399580361 71.90958794451213 13.845213989122199 0.030562343075871468 0        empty           
697-sub          1                697              0.6022117399516083 33.93199005613777 43.782410897818195 0.35239651799201965 0        empty           
1129-sub         1                1129             0.4817693919642863 79.65530934325528 39.16017879466155 0.08838219940662384 0        empty           
696-sub          1                696              0.30110586997687544 27.90751196219647 30.958839642598118 0.29766637086868286 0        empty           
1180-sub         1                1180             0.3613270439681081 81.80002451070357 33.91370965267793 0.05510123446583748 0        empty           
1185-sub         1                1185             0.18066352198512536 19.744578501610654 23.980614070671336 0.09533029794692993 0        empty           
457-sub          1                457              0.12044234799189289 62.876521352570435 19.580089397397536 0.19652119278907776 0        empty           
471-sub          1                471              0.18066352198741084 75.40773794754614 23.980614070823023 0.15805721282958984 0        empty           
1187-sub         1                1187             0.12044234799189289 28.597870680647947 19.580089397397536 0.06647246330976486 0        empty           
1662-sub         1                1662             0.12044234799160722 68.9922255472363 19.580089397374316 0.1877049207687378 0        empty           
1417-sub         1                1417             0.06022117399580361 37.62334101377704 13.845213989122199 0.10995838791131973 0        empty           
414-sub          1                414              0.06022117399580361 73.75686334238881 13.845213989122199 0.05940251797437668 0        empty           
404-sub          1                404              0.12044234799160722 87.14332378597375 19.580089397374316 0.06730522215366364 0        empty           
1179-sub         1                1179             0.06022117399580361 83.48368635887084 13.845213989122199 0.08213382959365845 0        empty           
1332-sub         1                1332             0.06022117399580361 95.01971653383731 13.845213989122199 0.0679587572813034 0        empty           
998-sub          1                998              0.7226540879455009 65.8534029026307 47.96122814150858 0.11818662285804749 0        empty           
1184-sub         1                1184             0.240884695980929 33.56324372299723 27.690427978113036 0.11857880651950836 0        empty           
1189-sub         1                1189             0.4215482179689112 42.416994538329895 36.63099306361539 0.22755396366119385 0        empty           
1062-sub         1                1062             0.18066352198783933 93.18902224702131 23.980614070851463 0.09587341547012329 0        empty           
710-sub          1                710              0.12044234799160722 78.54784039542854 19.580089397374316 0.14136534929275513 0        empty           
1330-sub         1                1330             0.12044234799160722 87.47911966492813 19.580089397374316 0.04202519357204437 0        empty           
591-sub          1                591              0.06022117399580361 81.01571849932512 13.845213989122199 0.11726633459329605 0        empty           
728-sub          1                728              0.12044234799175006 99.98053454139512 19.580089397385926 0.1998678743839264 0        empty           
228-sub          1                228              0.06022117399580361 89.497633897939 13.845213989122199 0.09392362833023071 0        empty           
1181-sub         1                1181             0.36132704397310755 71.65575520570832 33.91370965291255 0.10998138040304184 0        empty           
1386-sub         1                1386             0.9033176099331973 72.5156429335664 53.62228320443376 0.10748760402202606 0        empty           
1202-sub         1                1202             0.30110586997901806 94.57186927678707 30.95883964270827 0.13640187680721283 0        empty           
323-sub          1                323              0.30110586997944655 40.86190992843265 30.958839642730297 0.16610422730445862 0        empty           
417-sub          1                417              0.12044234799189289 99.86645023215281 19.580089397397536 0.1277514100074768 0        empty           
403-sub          1                403              0.18066352198755367 72.75566169674205 23.9806140708325 0.12621168792247772 0        empty           
293-sub          1                293              0.18066352198741084 68.322306971512 23.980614070823023 0.12239816784858704 0        empty           
1234-sub         1                1234             0.3011058699793037 64.17947332709872 30.958839642722957 0.045679960399866104 0        empty           